psse/powerflow/2bustest.raw
0,   100.00          / PSS/E-30.0    TUE, MAY 11 2004  13:26
Test Data 2 bus
BASE CASE INCLUDING SEQUENCE DATA
   1,'GENBUS      ', 500.0000,,     0.000,     0.000,   1,   1,,,   1
   2,'LOAD        ', 500.0000,,     0.000,     0.000,   2,   2,,,  22
0 / END OF BUS DATA, BEGIN LOAD DATA
   2,'1 ',1,   1,   1,   100.000,   10.000,     0.000,     0.000,     0.000,     0.000,   1
0 / END OF LOAD DATA, BEGIN GENERATOR DATA
   1,'1 ',   100.000,   10.000,   600.000,     0.000,1.01000,   205,  1000.000,   0.01000,   0.25000,   0.00000,   0.00000,1.00000,1,  100.0,   900.000,     0.000,   2,0.4000,  22,0.6000
0 / END OF GENERATOR DATA, BEGIN BRANCH DATA
   1,   2,'1 ',   0.00080,   0.01000,   0.0080, 1200.00, 1300.00,    1.00,  0.00000,  0.00000,  0.00000,  0.00000,1,   0.00,   1,1.0000
0 / END OF BRANCH DATA, BEGIN TRANSFORMER DATA
0 / END OF TRANSFORMER DATA, BEGIN AREA DATA
0 / END OF AREA DATA, BEGIN TWO-TERMINAL DC DATA
0 / END OF TWO-TERMINAL DC DATA, BEGIN VSC DC LINE DATA
0 / END OF VSC DC LINE DATA, BEGIN SWITCHED SHUNT DATA
0 / END OF SWITCHED SHUNT DATA, BEGIN IMPEDANCE CORRECTION DATA
0 / END OF IMPEDANCE CORRECTION DATA, BEGIN MULTI-TERMINAL DC DATA
0 / END OF MULTI-TERMINAL DC DATA, BEGIN MULTI-SECTION LINE DATA
0 / END OF MULTI-SECTION LINE DATA, BEGIN ZONE DATA
0 / END OF ZONE DATA, BEGIN INTER-AREA TRANSFER DATA
0 / END OF INTER-AREA TRANSFER DATA, BEGIN OWNER DATA
0 / END OF OWNER DATA, BEGIN FACTS DEVICE DATA
0 / END OF FACTS DEVICE DATA
